@<TRIPOS>MOLECULE
lig
 7 6 0 0 0
SMALL
GASTEIGER

@<TRIPOS>ATOM
      1 C           0.9122   -0.8155    0.0091 C.2     1  UNL11       0.1466
      2 C          -0.2358    0.0317   -0.3010 C.3     1  UNL11       0.4316
      3 O           0.7348   -1.9845    0.4146 O.co2   1  UNL11      -0.5420
      4 O           2.1651   -0.3363   -0.1423 O.co2   1  UNL11      -0.5420
      5 F          -0.1825    0.4096   -1.6178 F       1  UNL11      -0.1647
      6 F          -0.2092    1.1470    0.4960 F       1  UNL11      -0.1647
      7 F          -1.3936   -0.6660   -0.0722 F       1  UNL11      -0.1647
@<TRIPOS>UNITY_ATOM_ATTR
4 1
charge -1
@<TRIPOS>BOND
     1     2     1    1
     2     1     4    1
     3     1     3    2
     4     2     5    1
     5     2     6    1
     6     2     7    1
