@<TRIPOS>MOLECULE
*****
 7 6 0 0 0
SMALL
GASTEIGER

@<TRIPOS>ATOM
      1 C          -4.6173    0.3806   -0.0652 C.3     1  UNL1        0.4954
      2 C          -3.2996    0.8713    0.5270 C.2     1  UNL1        0.4585
      3 F          -5.2519   -0.5269    0.7047 F       1  UNL1       -0.1605
      4 F          -5.4706    1.4052   -0.2497 F       1  UNL1       -0.1605
      5 F          -4.4186   -0.1930   -1.2665 F       1  UNL1       -0.1605
      6 O          -2.7338    1.8795    0.1500 O.co2   1  UNL1       -0.2362
      7 O          -2.8114    0.1211    1.4839 O.co2   1  UNL1       -0.2362
@<TRIPOS>BOND
     1     1     2    1
     2     1     3    1
     3     1     4    1
     4     1     5    1
     5     2     6   ar
     6     2     7   ar
